Version 4
SHEET 1 1116 748
WIRE 880 -112 768 -112
WIRE 1104 -112 960 -112
WIRE -96 -16 -400 -16
WIRE -176 32 -176 0
WIRE 912 32 912 0
WIRE -176 48 -176 32
WIRE 912 48 912 32
WIRE -96 96 -96 -16
WIRE -96 96 -144 96
WIRE -48 96 -96 96
WIRE 192 96 -48 96
WIRE 320 96 272 96
WIRE 480 96 320 96
WIRE 768 96 768 -112
WIRE 768 96 560 96
WIRE 880 96 768 96
WIRE -400 128 -400 -16
WIRE -288 128 -400 128
WIRE 1072 128 1024 128
WIRE 1104 128 1104 -112
WIRE 1104 128 1072 128
WIRE -80 160 -144 160
WIRE 880 160 784 160
WIRE -176 224 -176 208
WIRE 912 224 912 208
WIRE -176 256 -176 224
WIRE 912 256 912 224
WIRE -80 272 -80 160
WIRE -640 384 -640 368
WIRE -512 384 -512 368
WIRE -640 400 -640 384
WIRE -512 400 -512 384
WIRE 80 592 -80 592
WIRE 224 592 80 592
WIRE -80 624 -80 592
FLAG 784 160 0
FLAG 912 32 VDD
FLAG 912 224 VSS
FLAG 960 208 0
FLAG 1072 128 Vo_f
FLAG 768 -112 Vf_f
FLAG -224 208 0
FLAG -48 96 Vin_f
FLAG -80 352 0
FLAG -176 32 VDD
FLAG -176 224 VSS
FLAG -640 480 0
FLAG -512 480 0
FLAG -640 384 VDD
FLAG -512 384 VSS
FLAG 320 96 PORT1
FLAG 80 592 2F
SYMBOL OpAmps\\LTC6268-10 912 128 R0
SYMATTR InstName U1
SYMBOL res 976 -128 R90
WINDOW 0 0 56 VBottom 2
WINDOW 3 32 56 VTop 2
SYMATTR InstName RF1
SYMATTR Value {R}
SYMBOL res 288 80 R90
WINDOW 0 0 56 VBottom 2
WINDOW 3 32 56 VTop 2
SYMATTR InstName RG1
SYMATTR Value {R}
SYMBOL OpAmps\\LTC6268-10 -176 128 M0
SYMATTR InstName U2
SYMBOL voltage -80 256 R0
WINDOW 3 24 44 Left 2
WINDOW 123 24 124 Left 2
WINDOW 39 0 0 Left 0
SYMATTR Value SINE(0 1 100)
SYMATTR Value2 AC 1
SYMATTR InstName V1
SYMBOL voltage -640 384 R0
WINDOW 123 0 0 Left 0
WINDOW 39 0 0 Left 0
SYMATTR InstName V2
SYMATTR Value 2.5
SYMBOL voltage -512 384 R0
WINDOW 123 0 0 Left 0
WINDOW 39 0 0 Left 0
SYMATTR InstName V3
SYMATTR Value -2.5
SYMBOL res 576 80 R90
WINDOW 0 0 56 VBottom 2
WINDOW 3 32 56 VTop 2
SYMATTR InstName R1
SYMBOL voltage -80 608 R0
WINDOW 3 24 44 Left 2
WINDOW 123 24 124 Left 2
WINDOW 39 0 0 Left 0
SYMATTR Value SINE(0 1 200)
SYMATTR Value2 AC 1
SYMATTR InstName V4
TEXT -728 656 Left 2 !.tran 5m
TEXT -456 600 Left 2 !.param R=1MEG
TEXT -456 648 Left 2 !.param R_DUT=100
TEXT -456 728 Left 2 !.lib cd4000.lib
