Version 4
SHEET 1 880 680
WIRE 256 -784 224 -784
WIRE 384 -784 336 -784
WIRE 96 -688 48 -688
WIRE 144 -688 96 -688
WIRE 224 -688 224 -784
WIRE 240 -688 224 -688
WIRE 384 -672 384 -784
WIRE 384 -672 304 -672
WIRE 240 -656 208 -656
WIRE 208 -624 208 -656
WIRE 592 -368 480 -368
WIRE 816 -368 672 -368
WIRE -384 -272 -688 -272
WIRE 256 -256 224 -256
WIRE 384 -256 336 -256
WIRE -464 -224 -464 -256
WIRE 624 -224 624 -256
WIRE -464 -208 -464 -224
WIRE 624 -208 624 -224
WIRE 288 -192 288 -208
WIRE 256 -176 256 -192
WIRE 272 -176 272 -192
WIRE 288 -176 288 -192
WIRE -384 -160 -384 -272
WIRE -384 -160 -432 -160
WIRE -336 -160 -384 -160
WIRE -96 -160 -336 -160
WIRE 32 -160 -16 -160
WIRE 144 -160 32 -160
WIRE 224 -160 224 -256
WIRE 240 -160 224 -160
WIRE 480 -160 480 -368
WIRE 592 -160 480 -160
WIRE 384 -144 384 -256
WIRE 384 -144 304 -144
WIRE 480 -144 480 -160
WIRE 480 -144 384 -144
WIRE -688 -128 -688 -272
WIRE -576 -128 -688 -128
WIRE 240 -128 208 -128
WIRE 784 -128 736 -128
WIRE 816 -128 816 -368
WIRE 816 -128 784 -128
WIRE -368 -96 -432 -96
WIRE 208 -96 208 -128
WIRE 592 -96 496 -96
WIRE 272 -80 272 -112
WIRE 272 -64 272 -80
WIRE -464 -32 -464 -48
WIRE -368 -32 -368 -96
WIRE 624 -32 624 -48
WIRE -464 0 -464 -32
WIRE 624 0 624 -32
WIRE -368 16 -368 -32
WIRE -928 128 -928 112
WIRE -800 128 -800 112
WIRE -928 144 -928 128
WIRE -800 144 -800 128
WIRE -928 400 -928 384
WIRE -800 400 -800 384
WIRE -928 416 -928 400
WIRE -800 416 -800 400
FLAG 496 -96 0
FLAG 624 -224 VDD
FLAG 624 -32 VSS
FLAG 672 -48 0
FLAG 784 -128 Vo_f
FLAG 480 -368 Vf_f
FLAG -512 -48 0
FLAG -336 -160 Vin_f
FLAG -368 96 0
FLAG -464 -224 VDD
FLAG -464 -32 VSS
FLAG -928 224 0
FLAG -800 224 0
FLAG -928 128 VDD
FLAG -800 128 VSS
FLAG 32 -160 PORT1
FLAG 208 -96 0
FLAG 208 -624 0
FLAG -368 -32 V1
FLAG 96 -688 V1
FLAG 256 -192 CL
FLAG 96 -352 CL
FLAG 272 -192 CR
FLAG 160 -352 CR
FLAG 288 -192 VDD_2
FLAG 272 -80 VSS_2
FLAG -928 496 0
FLAG -800 496 0
FLAG -928 400 VDD_2
FLAG -800 400 VSS_2
SYMBOL OpAmps\\LTC6268-10 624 -128 R0
SYMATTR InstName U1
SYMBOL res 688 -384 R90
WINDOW 0 0 56 VBottom 2
WINDOW 3 32 56 VTop 2
SYMATTR InstName RF1
SYMATTR Value {R}
SYMBOL res 0 -176 R90
WINDOW 0 0 56 VBottom 2
WINDOW 3 32 56 VTop 2
SYMATTR InstName RG1
SYMATTR Value {R}
SYMBOL OpAmps\\LTC6268-10 -464 -128 M0
SYMATTR InstName U2
SYMBOL voltage -368 0 R0
WINDOW 3 24 44 Left 2
WINDOW 123 24 124 Left 2
WINDOW 39 0 0 Left 0
SYMATTR Value SINE(0 1 100k)
SYMATTR Value2 AC 1
SYMATTR InstName V1
SYMBOL voltage -928 128 R0
WINDOW 123 0 0 Left 0
WINDOW 39 0 0 Left 0
SYMATTR InstName V2
SYMATTR Value 2.5
SYMBOL voltage -800 128 R0
WINDOW 123 0 0 Left 0
WINDOW 39 0 0 Left 0
SYMATTR InstName V3
SYMATTR Value -2.5
SYMBOL OpAmps\\RH101A 272 -208 R0
SYMATTR InstName U3
SYMBOL res 240 -176 R90
WINDOW 0 0 56 VBottom 2
WINDOW 3 32 56 VTop 2
SYMATTR InstName R1
SYMATTR Value {R_INV}
SYMBOL res 352 -272 R90
WINDOW 0 0 56 VBottom 2
WINDOW 3 32 56 VTop 2
SYMATTR InstName R2
SYMATTR Value {R_INV}
SYMBOL OpAmps\\RH101A 272 -736 R0
SYMATTR InstName U4
SYMBOL res 240 -704 R90
WINDOW 0 0 56 VBottom 2
WINDOW 3 32 56 VTop 2
SYMATTR InstName R3
SYMATTR Value {R_INV}
SYMBOL res 352 -800 R90
WINDOW 0 0 56 VBottom 2
WINDOW 3 32 56 VTop 2
SYMATTR InstName R4
SYMATTR Value {R_INV}
SYMBOL cap 160 -368 R90
WINDOW 0 0 32 VBottom 2
WINDOW 3 32 32 VTop 2
SYMATTR InstName C1
SYMATTR Value 1p
SYMBOL voltage -928 400 R0
WINDOW 123 0 0 Left 0
WINDOW 39 0 0 Left 0
SYMATTR InstName V4
SYMATTR Value 15
SYMBOL voltage -800 400 R0
WINDOW 123 0 0 Left 0
WINDOW 39 0 0 Left 0
SYMATTR InstName V5
SYMATTR Value -15
TEXT -112 224 Left 2 !.tran 50u
TEXT 160 168 Left 2 !.param R=100
TEXT 160 224 Left 2 !.param R_INV=100
TEXT -112 280 Left 2 !;ac dec 100 1 10G
