Version 4
SHEET 1 2752 732
WIRE 2176 -288 2064 -288
WIRE 2400 -288 2256 -288
WIRE 2464 -288 2400 -288
WIRE 2640 -288 2528 -288
WIRE 144 -224 32 -224
WIRE 368 -224 224 -224
WIRE 432 -224 368 -224
WIRE 528 -224 496 -224
WIRE 608 -224 528 -224
WIRE 1312 -192 1008 -192
WIRE 2400 -176 2400 -288
WIRE 1232 -144 1232 -176
WIRE 2208 -144 2208 -176
WIRE -928 -128 -928 -144
WIRE -800 -128 -800 -144
WIRE 1232 -128 1232 -144
WIRE 2208 -128 2208 -144
WIRE -928 -112 -928 -128
WIRE -800 -112 -800 -128
WIRE 368 -112 368 -224
WIRE 176 -80 176 -112
WIRE 1312 -80 1312 -192
WIRE 1312 -80 1264 -80
WIRE 1360 -80 1312 -80
WIRE 1600 -80 1360 -80
WIRE 1856 -80 1680 -80
WIRE 2064 -80 2064 -288
WIRE 2064 -80 1936 -80
WIRE 2176 -80 2064 -80
WIRE 2640 -80 2640 -208
WIRE 176 -64 176 -80
WIRE 1008 -48 1008 -192
WIRE 1120 -48 1008 -48
WIRE 2368 -48 2320 -48
WIRE 2400 -48 2400 -96
WIRE 2400 -48 2368 -48
WIRE -432 -16 -544 -16
WIRE -160 -16 -352 -16
WIRE 32 -16 32 -224
WIRE 32 -16 -80 -16
WIRE 144 -16 32 -16
WIRE 608 -16 608 -144
WIRE 1328 -16 1264 -16
WIRE 2176 -16 2080 -16
WIRE 336 16 288 16
WIRE 368 16 368 -32
WIRE 368 16 336 16
WIRE 144 48 48 48
WIRE 1232 48 1232 32
WIRE 2208 48 2208 32
WIRE 1328 64 1328 -16
WIRE 1232 80 1232 48
WIRE 2208 80 2208 48
WIRE 176 112 176 96
WIRE 176 144 176 112
WIRE 2304 224 2192 224
WIRE 2528 224 2384 224
WIRE 144 304 32 304
WIRE 384 304 224 304
WIRE 1440 320 1136 320
WIRE 1360 368 1360 336
WIRE 2336 368 2336 336
WIRE 1360 384 1360 368
WIRE 2336 384 2336 368
WIRE 1440 432 1440 320
WIRE 1440 432 1392 432
WIRE 1488 432 1440 432
WIRE 1728 432 1488 432
WIRE 1984 432 1808 432
WIRE 2192 432 2192 224
WIRE 2192 432 2064 432
WIRE 2304 432 2192 432
WIRE 176 448 176 416
WIRE 176 464 176 448
WIRE 1136 464 1136 320
WIRE 1248 464 1136 464
WIRE 2496 464 2448 464
WIRE 2528 464 2528 224
WIRE 2528 464 2496 464
WIRE 1456 496 1392 496
WIRE 2304 496 2208 496
WIRE -432 512 -608 512
WIRE -176 512 -352 512
WIRE 32 512 32 304
WIRE 32 512 -96 512
WIRE 144 512 32 512
WIRE 352 544 288 544
WIRE 384 544 384 304
WIRE 384 544 352 544
WIRE 1360 560 1360 544
WIRE 2336 560 2336 544
WIRE -608 576 -608 512
WIRE 144 576 48 576
WIRE 1360 592 1360 560
WIRE 2336 592 2336 560
WIRE 1456 608 1456 496
WIRE 176 640 176 624
WIRE 176 672 176 640
FLAG 48 48 0
FLAG -928 -32 0
FLAG -800 -32 0
FLAG -928 -128 VDD
FLAG -800 -128 VSS
FLAG 176 -80 VDD
FLAG 176 112 VSS
FLAG 224 96 0
FLAG 608 -16 0
FLAG 336 16 Vo_ol
FLAG 528 -224 V4
FLAG -544 -16 0
FLAG 48 576 0
FLAG 176 448 VDD
FLAG 176 640 VSS
FLAG 224 624 0
FLAG -608 656 0
FLAG 352 544 V_cl
FLAG 32 -224 Vf
FLAG 2080 -16 0
FLAG 2208 -144 VDD
FLAG 2208 48 VSS
FLAG 2256 32 0
FLAG 2640 -80 0
FLAG 2368 -48 Vo_ol_2
FLAG 2064 -288 Vf_2
FLAG 1184 32 0
FLAG 1328 64 0
FLAG 1360 -80 Vin_2
FLAG 2208 496 0
FLAG 2336 368 VDD
FLAG 2336 560 VSS
FLAG 2384 544 0
FLAG 2496 464 Vo_f
FLAG 2192 224 Vf_f
FLAG 1312 544 0
FLAG 1488 432 Vin_f
FLAG 1456 688 0
FLAG 1360 368 VDD
FLAG 1360 560 VSS
FLAG 1232 48 VSS
FLAG 1232 -144 VDD
SYMBOL OpAmps\\LTC6268-10 176 16 R0
SYMATTR InstName U1
SYMBOL voltage -928 -128 R0
WINDOW 123 0 0 Left 0
WINDOW 39 0 0 Left 0
SYMATTR InstName V1
SYMATTR Value 2.5
SYMBOL voltage -800 -128 R0
WINDOW 123 0 0 Left 0
WINDOW 39 0 0 Left 0
SYMATTR InstName V2
SYMATTR Value -2.5
SYMBOL cap 496 -240 R90
WINDOW 0 0 32 VBottom 2
WINDOW 3 32 32 VTop 2
SYMATTR InstName C1
SYMATTR Value 1T
SYMBOL ind 352 -128 R0
SYMATTR InstName L1
SYMATTR Value 1T
SYMBOL voltage 608 -240 R0
WINDOW 123 24 124 Left 2
WINDOW 39 0 0 Left 0
SYMATTR Value2 AC 1
SYMATTR InstName V4
SYMATTR Value ""
SYMBOL res 240 -240 R90
WINDOW 0 0 56 VBottom 2
WINDOW 3 32 56 VTop 2
SYMATTR InstName RF
SYMATTR Value {R}
SYMBOL res -336 -32 R90
WINDOW 0 0 56 VBottom 2
WINDOW 3 32 56 VTop 2
SYMATTR InstName RG
SYMATTR Value {R}
SYMBOL OpAmps\\LTC6268-10 176 544 R0
SYMATTR InstName U2
SYMBOL res 240 288 R90
WINDOW 0 0 56 VBottom 2
WINDOW 3 32 56 VTop 2
SYMATTR InstName RF1
SYMATTR Value {R}
SYMBOL res -336 496 R90
WINDOW 0 0 56 VBottom 2
WINDOW 3 32 56 VTop 2
SYMATTR InstName RG1
SYMATTR Value {R}
SYMBOL voltage -608 560 R0
WINDOW 123 24 124 Left 2
WINDOW 39 0 0 Left 0
SYMATTR Value2 AC 1
SYMATTR InstName V3
SYMATTR Value ""
SYMBOL OpAmps\\LTC6268-10 2208 -48 R0
SYMATTR InstName U3
SYMBOL cap 2528 -304 R90
WINDOW 0 0 32 VBottom 2
WINDOW 3 32 32 VTop 2
SYMATTR InstName C2
SYMATTR Value 1T
SYMBOL ind 2384 -192 R0
SYMATTR InstName L2
SYMATTR Value 1T
SYMBOL voltage 2640 -304 R0
WINDOW 123 24 124 Left 2
WINDOW 39 0 0 Left 0
SYMATTR Value2 AC 1
SYMATTR InstName V5
SYMATTR Value ""
SYMBOL res 2272 -304 R90
WINDOW 0 0 56 VBottom 2
WINDOW 3 32 56 VTop 2
SYMATTR InstName RF2
SYMATTR Value {R}
SYMBOL res 1696 -96 R90
WINDOW 0 0 56 VBottom 2
WINDOW 3 32 56 VTop 2
SYMATTR InstName RG2
SYMATTR Value {R}
SYMBOL OpAmps\\LTC6268-10 1232 -48 M0
SYMATTR InstName U4
SYMBOL OpAmps\\LTC6268-10 2336 464 R0
SYMATTR InstName U5
SYMBOL res 2400 208 R90
WINDOW 0 0 56 VBottom 2
WINDOW 3 32 56 VTop 2
SYMATTR InstName RF3
SYMATTR Value {R}
SYMBOL res 1824 416 R90
WINDOW 0 0 56 VBottom 2
WINDOW 3 32 56 VTop 2
SYMATTR InstName RG3
SYMATTR Value {R}
SYMBOL OpAmps\\LTC6268-10 1360 464 M0
SYMATTR InstName U6
SYMBOL voltage 1456 592 R0
WINDOW 3 24 44 Left 2
WINDOW 123 24 124 Left 2
WINDOW 39 0 0 Left 0
SYMATTR Value SINE(0 1 1)
SYMATTR Value2 AC 1
SYMATTR InstName V6
SYMBOL ind -64 -32 R90
WINDOW 0 5 56 VBottom 2
WINDOW 3 32 56 VTop 2
SYMATTR InstName L3
SYMATTR Value {L_DUT}
SYMBOL ind -80 496 R90
WINDOW 0 5 56 VBottom 2
WINDOW 3 32 56 VTop 2
SYMATTR InstName L4
SYMATTR Value {L_DUT}
SYMBOL ind 1952 -96 R90
WINDOW 0 5 56 VBottom 2
WINDOW 3 32 56 VTop 2
SYMATTR InstName L5
SYMATTR Value {L_DUT}
SYMBOL ind 2080 416 R90
WINDOW 0 5 56 VBottom 2
WINDOW 3 32 56 VTop 2
SYMATTR InstName L6
SYMATTR Value {L_DUT}
TEXT -952 56 Left 2 !.ac dec 10 1 10G
TEXT -944 144 Left 2 !.param R=10k
TEXT -944 200 Left 2 !.step dec param L_DUT 1m 1000 1
TEXT -944 264 Left 2 !;tran 10
