Version 4
SHEET 1 880 740
WIRE 64 -464 16 -464
WIRE 112 -464 64 -464
WIRE 224 -464 192 -464
WIRE 336 -464 288 -464
WIRE 336 -448 336 -464
WIRE 336 -336 336 -368
WIRE 560 -144 448 -144
WIRE 784 -144 640 -144
WIRE -416 -48 -720 -48
WIRE -496 0 -496 -32
WIRE 592 0 592 -32
WIRE -496 16 -496 0
WIRE 592 16 592 0
WIRE -416 64 -416 -48
WIRE -416 64 -464 64
WIRE -368 64 -416 64
WIRE -128 64 -368 64
WIRE 0 64 -48 64
WIRE 128 64 0 64
WIRE 448 64 448 -144
WIRE 448 64 352 64
WIRE 560 64 448 64
WIRE -720 96 -720 -48
WIRE -608 96 -720 96
WIRE 752 96 704 96
WIRE 784 96 784 -144
WIRE 784 96 752 96
WIRE -400 128 -464 128
WIRE 560 128 464 128
WIRE 128 144 128 64
WIRE 176 144 128 144
WIRE 272 144 240 144
WIRE 352 144 352 64
WIRE 128 160 128 144
WIRE -496 192 -496 176
WIRE -400 192 -400 128
WIRE 592 192 592 176
WIRE -496 224 -496 192
WIRE 592 224 592 192
WIRE -400 240 -400 192
WIRE 128 272 128 240
WIRE -960 352 -960 336
WIRE -832 352 -832 336
WIRE -960 368 -960 352
WIRE -832 368 -832 352
FLAG 464 128 0
FLAG 592 0 VDD
FLAG 592 192 VSS
FLAG 640 176 0
FLAG 752 96 Vo_f
FLAG 448 -144 Vf_f
FLAG -544 176 0
FLAG -368 64 Vin_f
FLAG -400 320 0
FLAG -496 0 VDD
FLAG -496 192 VSS
FLAG -960 448 0
FLAG -832 448 0
FLAG -960 352 VDD
FLAG -832 352 VSS
FLAG 0 64 PORT1
FLAG -400 192 V1
FLAG 64 -464 V1
FLAG 128 272 0
FLAG 336 -336 0
SYMBOL OpAmps\\LTC6268-10 592 96 R0
SYMATTR InstName U1
SYMBOL res 656 -160 R90
WINDOW 0 0 56 VBottom 2
WINDOW 3 32 56 VTop 2
SYMATTR InstName RF1
SYMATTR Value {R}
SYMBOL res -32 48 R90
WINDOW 0 0 56 VBottom 2
WINDOW 3 32 56 VTop 2
SYMATTR InstName RG1
SYMATTR Value {R}
SYMBOL OpAmps\\LTC6268-10 -496 96 M0
SYMATTR InstName U2
SYMBOL voltage -400 224 R0
WINDOW 3 24 44 Left 2
WINDOW 123 24 124 Left 2
WINDOW 39 0 0 Left 0
SYMATTR Value SINE(0 1 10k)
SYMATTR Value2 AC 1
SYMATTR InstName V1
SYMBOL voltage -960 352 R0
WINDOW 123 0 0 Left 0
WINDOW 39 0 0 Left 0
SYMATTR InstName V2
SYMATTR Value 2.5
SYMBOL voltage -832 352 R0
WINDOW 123 0 0 Left 0
WINDOW 39 0 0 Left 0
SYMATTR InstName V3
SYMATTR Value -2.5
SYMBOL ind 256 128 M90
WINDOW 0 5 56 VBottom 2
WINDOW 3 32 56 VTop 2
SYMATTR InstName L1
SYMATTR Value 0.008
SYMBOL cap 176 128 M90
WINDOW 0 0 32 VBottom 2
WINDOW 3 32 32 VTop 2
SYMATTR InstName C1
SYMATTR Value 3.18µ
SYMBOL res 144 144 M0
SYMATTR InstName R1
SYMATTR Value 50
SYMBOL ind 208 -480 R90
WINDOW 0 5 56 VBottom 2
WINDOW 3 32 56 VTop 2
SYMATTR InstName L2
SYMATTR Value 0.008
SYMBOL cap 288 -480 R90
WINDOW 0 0 32 VBottom 2
WINDOW 3 32 32 VTop 2
SYMATTR InstName C2
SYMATTR Value 3.18µ
SYMBOL res 320 -464 R0
SYMATTR InstName R2
SYMATTR Value 50
TEXT -144 448 Left 2 !;tran 0.5m
TEXT 128 392 Left 2 !.param R=100
TEXT -144 504 Left 2 !.ac dec 10 1 1G
