Version 4
SHEET 1 972 680
WIRE 736 -80 624 -80
WIRE 960 -80 816 -80
WIRE -240 16 -544 16
WIRE -320 64 -320 32
WIRE 768 64 768 32
WIRE -320 80 -320 64
WIRE 768 80 768 64
WIRE -240 128 -240 16
WIRE -240 128 -288 128
WIRE -192 128 -240 128
WIRE 48 128 -192 128
WIRE 176 128 128 128
WIRE 304 128 176 128
WIRE 320 128 304 128
WIRE 448 128 400 128
WIRE 624 128 624 -80
WIRE 624 128 448 128
WIRE 736 128 624 128
WIRE -544 160 -544 16
WIRE -432 160 -544 160
WIRE 928 160 880 160
WIRE 960 160 960 -80
WIRE 960 160 928 160
WIRE 304 176 304 128
WIRE 448 176 448 128
WIRE -224 192 -288 192
WIRE 736 192 640 192
WIRE -320 256 -320 240
WIRE 768 256 768 240
WIRE -320 288 -320 256
WIRE 304 288 304 256
WIRE 448 288 448 256
WIRE 768 288 768 256
WIRE -224 304 -224 192
WIRE -784 416 -784 400
WIRE -656 416 -656 400
WIRE -784 432 -784 416
WIRE -656 432 -656 416
FLAG 640 192 0
FLAG 768 64 VDD
FLAG 768 256 VSS
FLAG 816 240 0
FLAG 928 160 Vo_f
FLAG 624 -80 Vf_f
FLAG -368 240 0
FLAG -192 128 Vin_f
FLAG -224 384 0
FLAG -320 64 VDD
FLAG -320 256 VSS
FLAG -784 512 0
FLAG -656 512 0
FLAG -784 416 VDD
FLAG -656 416 VSS
FLAG 176 128 PORT1
FLAG 304 288 0
FLAG 448 288 0
SYMBOL OpAmps\\LTC6268-10 768 160 R0
SYMATTR InstName U1
SYMBOL res 832 -96 R90
WINDOW 0 0 56 VBottom 2
WINDOW 3 32 56 VTop 2
SYMATTR InstName RF1
SYMATTR Value {R}
SYMBOL res 144 112 R90
WINDOW 0 0 56 VBottom 2
WINDOW 3 32 56 VTop 2
SYMATTR InstName RG1
SYMATTR Value {R}
SYMBOL OpAmps\\LTC6268-10 -320 160 M0
SYMATTR InstName U2
SYMBOL voltage -224 288 R0
WINDOW 3 24 44 Left 2
WINDOW 123 24 124 Left 2
WINDOW 39 0 0 Left 0
SYMATTR Value SINE(0 1 10k)
SYMATTR Value2 AC 1
SYMATTR InstName V1
SYMBOL voltage -784 416 R0
WINDOW 123 0 0 Left 0
WINDOW 39 0 0 Left 0
SYMATTR InstName V2
SYMATTR Value 2.5
SYMBOL voltage -656 416 R0
WINDOW 123 0 0 Left 0
WINDOW 39 0 0 Left 0
SYMATTR InstName V3
SYMATTR Value -2.5
SYMBOL ind 320 272 R180
WINDOW 0 36 80 Left 2
WINDOW 3 36 40 Left 2
SYMATTR InstName L1
SYMATTR Value {L_DUT}
SYMBOL ind 464 272 R180
WINDOW 0 36 80 Left 2
WINDOW 3 36 40 Left 2
SYMATTR InstName L2
SYMATTR Value {L_DUT}
SYMBOL ind 304 144 R270
WINDOW 0 32 56 VTop 2
WINDOW 3 5 56 VBottom 2
SYMATTR InstName L3
SYMATTR Value {L_DUT}
TEXT 32 512 Left 2 !.tran 5m
TEXT 304 456 Left 2 !.param R=1MEG
TEXT 304 504 Left 2 !.param L_DUT=1k
