Version 4
SHEET 1 880 740
WIRE 352 -48 16 -48
WIRE 416 -48 352 -48
WIRE 512 -48 480 -48
WIRE 592 -48 512 -48
WIRE 352 -16 352 -48
WIRE 160 16 160 -16
WIRE 160 32 160 16
WIRE -352 80 -352 64
WIRE -224 80 -224 64
WIRE 16 80 16 -48
WIRE 128 80 16 80
WIRE 592 80 592 32
WIRE -352 96 -352 80
WIRE -224 96 -224 80
WIRE 320 112 272 112
WIRE 352 112 352 64
WIRE 352 112 320 112
WIRE 128 144 32 144
WIRE 160 208 160 192
WIRE 160 240 160 208
WIRE 416 320 16 320
WIRE 224 384 224 352
WIRE 224 400 224 384
WIRE 16 448 16 320
WIRE 192 448 16 448
WIRE 416 480 416 320
WIRE 416 480 336 480
WIRE 464 480 416 480
WIRE 480 480 464 480
WIRE 80 512 16 512
WIRE 192 512 80 512
WIRE 16 560 16 512
WIRE 224 576 224 560
WIRE 224 608 224 576
WIRE 16 656 16 640
FLAG 32 144 0
FLAG -352 176 0
FLAG -224 176 0
FLAG -352 80 VDD
FLAG -224 80 VSS
FLAG 160 16 VDD
FLAG 160 208 VSS
FLAG 208 192 0
FLAG 224 384 VDD
FLAG 224 576 VSS
FLAG 272 560 0
FLAG 16 656 0
FLAG 592 80 0
FLAG 464 480 Vo_cl
FLAG 320 112 Vo_ol
FLAG 16 -48 Vf
FLAG 80 512 V3
FLAG 512 -48 V4
SYMBOL OpAmps\\LTC6268-10 160 112 R0
SYMATTR InstName U1
SYMBOL voltage -352 80 R0
WINDOW 123 0 0 Left 0
WINDOW 39 0 0 Left 0
SYMATTR InstName V1
SYMATTR Value 2.5
SYMBOL voltage -224 80 R0
WINDOW 123 0 0 Left 0
WINDOW 39 0 0 Left 0
SYMATTR InstName V2
SYMATTR Value -2.5
SYMBOL cap 480 -64 R90
WINDOW 0 0 32 VBottom 2
WINDOW 3 32 32 VTop 2
SYMATTR InstName C1
SYMATTR Value 1T
SYMBOL ind 336 -32 R0
SYMATTR InstName L1
SYMATTR Value 1T
SYMBOL OpAmps\\LTC6268-10 224 480 R0
SYMATTR InstName U2
SYMBOL voltage 16 544 R0
WINDOW 123 24 124 Left 2
WINDOW 39 0 0 Left 0
SYMATTR InstName V3
SYMATTR Value ""
SYMATTR Value2 AC 1
SYMBOL voltage 592 -64 R0
WINDOW 123 24 124 Left 2
WINDOW 39 0 0 Left 0
SYMATTR InstName V4
SYMATTR Value ""
SYMATTR Value2 AC 1
TEXT -376 264 Left 2 !.ac dec 100 0.1 10G
